This is a test file to see if a webhook gets triggered.
Let's see if this works.
New line.
